Version 4.1
SHEET 1 880 680
SYMBOL nmos 80 0 R0
SYMATTR InstName M1
