Version 4.1
SHEET 1 880 680
WIRE -400 -128 -400 -144
WIRE -288 -128 -288 -144
WIRE -400 -16 -400 -48
WIRE -288 -16 -288 -48
WIRE 336 0 96 0
WIRE 496 0 416 0
WIRE -80 128 -208 128
WIRE 96 128 96 0
WIRE 96 128 0 128
WIRE 160 128 96 128
WIRE 496 160 496 0
WIRE 496 160 304 160
WIRE -208 192 -208 128
WIRE 160 192 112 192
WIRE -208 336 -208 272
WIRE 112 336 112 192
WIRE 112 336 -208 336
WIRE 480 336 112 336
WIRE 480 384 480 336
FLAG 480 384 0
FLAG -400 -16 0
FLAG -288 -16 0
FLAG -400 -144 +V
FLAG -288 -144 -V
FLAG 192 80 +V
FLAG 240 240 +V
FLAG 192 240 -V
SYMBOL OpAmps\\LTC6268-10 192 160 R0
SYMATTR InstName U1
SYMBOL res 16 112 R90
WINDOW 0 0 56 VBottom 2
WINDOW 3 32 56 VTop 2
SYMATTR InstName R1
SYMATTR Value 100
SYMBOL res 432 -16 R90
WINDOW 0 0 56 VBottom 2
WINDOW 3 32 56 VTop 2
SYMATTR InstName R2
SYMATTR Value 100
SYMBOL voltage -208 176 R0
WINDOW 123 0 0 Left 0
WINDOW 39 0 0 Left 0
SYMATTR InstName V3
SYMATTR Value 5
SYMBOL voltage -400 -144 R0
WINDOW 123 0 0 Left 2
WINDOW 39 0 0 Left 2
SYMATTR InstName V1
SYMATTR Value 11
SYMBOL voltage -288 -144 R0
WINDOW 123 0 0 Left 2
WINDOW 39 0 0 Left 2
SYMATTR InstName V2
SYMATTR Value -11
TEXT -432 408 Left 2 !.tran 5
