Version 4
SHEET 1 1084 788
WIRE 512 96 480 96
WIRE 176 112 112 112
WIRE 256 112 176 112
WIRE 480 128 480 96
WIRE 112 144 112 112
WIRE 64 224 -16 224
WIRE 256 224 256 112
WIRE -16 240 -16 224
WIRE 480 240 480 208
WIRE 512 304 480 304
WIRE -16 336 -16 320
WIRE 112 336 112 240
WIRE 256 336 256 304
WIRE 480 336 480 304
WIRE 176 432 112 432
WIRE 256 432 176 432
WIRE 480 448 480 416
WIRE 112 464 112 432
WIRE 512 512 480 512
WIRE 64 544 -16 544
WIRE 256 544 256 432
WIRE 480 544 480 512
WIRE -16 560 -16 544
WIRE -16 656 -16 640
WIRE 112 656 112 560
WIRE 256 656 256 624
WIRE 480 656 480 624
FLAG 112 336 0
FLAG -16 336 0
FLAG 256 336 0
FLAG 176 112 d1
FLAG 112 656 0
FLAG -16 656 0
FLAG 256 656 0
FLAG 176 432 d2
FLAG 480 240 0
FLAG 480 448 0
FLAG 480 656 0
FLAG 512 96 Coss
FLAG 512 304 Crss
FLAG 512 512 Ciss
SYMBOL NMOS 64 144 R0
SYMATTR InstName M1
SYMATTR Value IXSJ43N120R1
SYMBOL voltage 256 208 R0
WINDOW 123 24 132 Left 0
WINDOW 39 0 0 Left 0
SYMATTR Value2 AC 1
SYMATTR InstName V1
SYMATTR Value { VDS}
SYMBOL voltage -16 224 R0
WINDOW 123 24 132 Left 0
WINDOW 39 0 0 Left 0
SYMATTR Value2 AC 0
SYMATTR InstName V2
SYMATTR Value 0
SYMBOL NMOS 64 464 R0
SYMATTR InstName M2
SYMATTR Value IXSJ43N120R1
SYMBOL voltage 256 528 R0
WINDOW 123 24 132 Left 0
WINDOW 39 0 0 Left 0
SYMATTR Value2 AC 0
SYMATTR InstName V3
SYMATTR Value { VDS}
SYMBOL voltage -16 544 R0
WINDOW 123 24 132 Left 0
WINDOW 39 0 0 Left 0
SYMATTR Value2 AC 1
SYMATTR InstName V4
SYMATTR Value 0
SYMBOL h 480 112 R0
SYMATTR InstName H1
SYMATTR Value V1 -1e-3
SYMBOL h 480 320 R0
SYMATTR InstName H2
SYMATTR Value V2 -1e-3
SYMBOL h 480 528 R0
SYMATTR InstName H3
SYMATTR Value V4 -1e-3
TEXT -376 -8 Left 0 !.MODEL 20N60C3 VDMOS(KP=1.9868 RS=0.0004 RD=0.0001 RG=1.0 VTO=3.85 \n+LAMBDA=0.001 CGDMAX=1388p CGDMIN=5p CGS=2448p TT=37n a=1.41\n+IS=5.98E-04 N=10.033 RB=0.031511 BV=1200 IBV=1u m=0.413 Vj=0.1 Cjo=2900.0pF)
TEXT -376 96 Left 0 !.step param VDS 0.01 25 0.1
TEXT -376 120 Left 0 !.ac list {1e3/2/pi} ; jw=1e3
TEXT -368 -80 Left 0 ;MOSFET Capacitances Versus Drain-Source Voltage

