Version 4.1
SHEET 1 2828 1468
WIRE 256 400 112 400
WIRE 320 400 256 400
WIRE 112 448 112 400
WIRE 320 480 320 400
WIRE -32 528 -96 528
WIRE 64 528 -32 528
WIRE -96 560 -96 528
WIRE -96 672 -96 640
WIRE 112 672 112 544
WIRE 320 672 320 560
FLAG -96 672 0
FLAG 112 672 0
FLAG -32 528 gs
FLAG 256 400 d
FLAG 320 672 0
SYMBOL voltage -96 544 R0
WINDOW 123 0 0 Left 0
WINDOW 39 0 0 Left 0
SYMATTR InstName V1
SYMATTR Value {vgs}
SYMBOL voltage 320 464 R0
WINDOW 123 0 0 Left 0
WINDOW 39 0 0 Left 0
WINDOW 3 -187 111 Left 0
SYMATTR Value PWL(0 0 1 {Vds})
SYMATTR InstName V2
SYMBOL NMOS 64 448 R0
SYMATTR InstName M1
SYMATTR Value IXSJ43N120R1
TEXT -136 232 Left 0 !.tran 1
TEXT 408 432 Left 0 ;Id
TEXT 832 680 Left 0 ;Vds
TEXT -136 256 Left 0 !.options plotwinsize=0
TEXT 16 376 Left 0 ;VDMOS model
TEXT -136 280 Left 0 !.param vds=10\n.step param Vgs 0 18 1
TEXT -120 736 Left 0 !.MODEL IXSJ43N120R1 VDMOS(KP=1.9868 RS=0.0004 RD=0.0001 RG=1.0 VTO=3.85 \n+LAMBDA=0.001 CGDMAX=1388p CGDMIN=5p CGS=2448p TT=37n a=1.41\n+IS=5.98E-04 N=10.033 RB=0.031511 BV=1200 IBV=1u m=0.413 Vj=0.1 Cjo=2900.0pF)
TEXT 792 488 Left 0 ;Vgs
LINE Normal 464 656 464 400
LINE Normal 864 656 464 656
LINE Normal 584 656 472 656
LINE Normal 560 416 464 656
LINE Normal 864 416 560 416
LINE Normal 859 468 539 468
LINE Normal 858 511 522 511
LINE Normal 861 545 509 545
LINE Normal 864 576 496 576
LINE Normal 868 609 484 609
LINE Normal 858 636 474 636
