Version 4.1
SHEET 1 1224 792
WIRE 176 -208 -80 -208
WIRE 560 -208 176 -208
WIRE 560 -160 560 -208
WIRE -80 -64 -80 -208
WIRE 176 -64 176 -208
WIRE -304 16 -448 16
WIRE -128 16 -224 16
WIRE -80 32 -80 16
WIRE -448 64 -448 16
WIRE 128 112 128 16
WIRE 128 112 -256 112
WIRE -256 160 -256 112
WIRE -80 176 -80 32
WIRE 176 176 176 32
WIRE -80 288 -80 256
WIRE 176 288 176 256
WIRE 176 288 -80 288
WIRE 384 288 176 288
WIRE 384 336 384 288
WIRE -448 720 -448 144
WIRE -256 720 -256 240
WIRE -256 720 -448 720
WIRE 384 720 384 416
WIRE 384 720 -256 720
WIRE 560 720 560 -80
WIRE 560 720 384 720
WIRE 384 752 384 720
FLAG 384 752 0
SYMBOL nmos -128 -64 R0
SYMATTR InstName M1
SYMATTR Value AONS66920
SYMBOL nmos 128 -64 R0
SYMATTR InstName M2
SYMATTR Value AONS66920
SYMBOL res -96 160 R0
SYMATTR InstName R1
SYMATTR Value 100
SYMBOL res 160 160 R0
SYMATTR InstName R2
SYMATTR Value 100
SYMBOL res 368 320 R0
SYMATTR InstName Resistance
SYMATTR Value 100K
SYMBOL voltage 560 -176 R0
WINDOW 123 0 0 Left 0
WINDOW 39 0 0 Left 0
SYMATTR InstName V1
SYMATTR Value 12
SYMBOL voltage -448 48 R0
WINDOW 123 0 0 Left 0
WINDOW 39 0 0 Left 0
SYMATTR InstName V2
SYMATTR Value PULSE(0 3.3 0 1n 1n 1s 9s)
SYMBOL voltage -256 144 R0
WINDOW 123 0 0 Left 0
WINDOW 39 0 0 Left 0
SYMATTR InstName V3
SYMATTR Value PULSE(0 3.3 3s 1n 1n 1s 9s)
SYMBOL res -208 0 R90
WINDOW 0 0 56 VBottom 2
WINDOW 3 32 56 VTop 2
SYMATTR InstName R4
SYMATTR Value 10000000
TEXT -480 776 Left 2 !.tran 100
TEXT 776 448 Left 2 !.model mydiode D(IS=83p N=1 RS=0)
