Version 4.1
SHEET 1 3608 1112
WIRE -336 -288 -336 -304
WIRE -224 -288 -224 -304
WIRE -336 -176 -336 -208
WIRE -224 -176 -224 -208
WIRE 240 -144 -80 -144
WIRE 240 -128 240 -144
WIRE 1024 -128 240 -128
WIRE 2512 -128 1920 -128
WIRE 240 -48 240 -128
WIRE 416 -48 240 -48
WIRE 1024 -32 1024 -128
WIRE 1200 -32 1024 -32
WIRE 2064 16 1824 16
WIRE 2224 16 2144 16
WIRE -80 32 -80 -144
WIRE 240 32 240 -48
WIRE 416 48 416 -48
WIRE 1024 48 1024 -32
WIRE 1200 64 1200 -32
WIRE 1920 96 1920 -128
WIRE 416 128 416 112
WIRE 736 128 416 128
WIRE 1824 144 1824 16
WIRE 1824 144 1728 144
WIRE 1888 144 1824 144
WIRE 240 160 240 112
WIRE 416 160 416 128
WIRE 416 160 240 160
WIRE 1024 176 1024 128
WIRE 1200 176 1200 128
WIRE 1200 176 1024 176
WIRE 1408 176 1200 176
WIRE 2224 176 2224 16
WIRE 2224 176 2032 176
WIRE 1888 208 1840 208
WIRE 192 240 112 240
WIRE 976 256 896 256
WIRE 112 288 112 240
WIRE 896 304 896 256
WIRE 1968 304 1968 256
WIRE 2512 304 2512 -128
WIRE 2512 304 1968 304
WIRE 1840 352 1840 208
WIRE 1840 352 1728 352
WIRE -80 416 -80 112
WIRE 112 416 112 368
WIRE 112 416 -80 416
WIRE 240 416 240 256
WIRE 240 416 112 416
WIRE 896 432 896 384
WIRE 896 432 704 432
WIRE 1024 432 1024 272
WIRE 1024 432 896 432
WIRE 1728 432 1728 352
WIRE -80 448 -80 416
WIRE 352 448 -80 448
WIRE 704 448 704 432
WIRE 704 448 352 448
WIRE 1408 464 1408 176
WIRE -80 480 -80 448
WIRE 2880 496 2576 496
WIRE 736 512 736 128
WIRE 1408 560 1408 528
WIRE 2688 608 2688 576
WIRE 2720 608 2688 608
WIRE 2720 640 2720 608
WIRE 1408 656 1408 640
WIRE 1408 656 736 656
WIRE 2096 656 1408 656
WIRE 2576 656 2576 496
WIRE 2688 656 2576 656
WIRE 2880 672 2880 496
WIRE 2880 672 2752 672
WIRE 3072 672 2880 672
WIRE 2096 688 2096 656
WIRE 2688 688 2096 688
WIRE 2720 736 2720 704
WIRE 2720 736 2688 736
WIRE 3072 784 3072 672
WIRE 2688 848 2688 736
WIRE 2720 848 2688 848
WIRE 352 1104 352 448
WIRE 3072 1104 3072 864
WIRE 3072 1104 352 1104
FLAG -80 480 0
FLAG -336 -176 0
FLAG -224 -176 0
FLAG -336 -304 +V
FLAG -224 -304 -V
FLAG 2688 576 +V
FLAG 2720 848 -V
SYMBOL nmos 192 160 R0
SYMATTR InstName M1
SYMATTR Value BSZ0920NS
SYMBOL res 224 16 R0
SYMATTR InstName R1
SYMATTR Value 1000
SYMBOL schottky 432 112 R180
WINDOW 0 24 64 Left 2
WINDOW 3 24 0 Left 2
SYMATTR InstName D1
SYMATTR Value 1N5817
SYMATTR Description Diode
SYMATTR Type diode
SYMBOL voltage -80 16 R0
WINDOW 123 0 0 Left 0
WINDOW 39 0 0 Left 0
SYMATTR InstName V1
SYMATTR Value 12
SYMBOL voltage 112 272 R0
WINDOW 123 0 0 Left 0
WINDOW 39 0 0 Left 0
SYMATTR InstName V2
SYMATTR Value PULSE(0 3.3 0 1n 1n 8999850u 9s)
SYMBOL nmos 976 176 R0
SYMATTR InstName M2
SYMATTR Value BSZ0920NS
SYMBOL res 1008 32 R0
SYMATTR InstName R2
SYMATTR Value 1000
SYMBOL schottky 1216 128 R180
WINDOW 0 24 64 Left 2
WINDOW 3 24 0 Left 2
SYMATTR InstName D2
SYMATTR Value 1N5817
SYMATTR Description Diode
SYMATTR Type diode
SYMBOL voltage 896 288 R0
WINDOW 123 0 0 Left 0
WINDOW 39 0 0 Left 0
SYMATTR InstName V4
SYMATTR Value PULSE(0 3.3 3s 1n 1n 8999850u 9s)
SYMBOL OpAmps\\LTC6268-10 1920 176 R0
SYMATTR InstName U1
SYMBOL res 1744 128 R90
WINDOW 0 0 56 VBottom 2
WINDOW 3 32 56 VTop 2
SYMATTR InstName R3
SYMATTR Value 100000000
SYMBOL res 2160 0 R90
WINDOW 0 0 56 VBottom 2
WINDOW 3 32 56 VTop 2
SYMATTR InstName R4
SYMATTR Value 100000000
SYMBOL schottky 720 512 R0
SYMATTR InstName D3
SYMATTR Value 1N5817
SYMATTR Description Diode
SYMATTR Type diode
SYMBOL schottky 1392 464 R0
SYMATTR InstName D4
SYMATTR Value 1N5817
SYMATTR Description Diode
SYMATTR Type diode
SYMBOL res 720 560 R0
SYMATTR InstName R6
SYMATTR Value 100
SYMBOL res 1392 544 R0
SYMATTR InstName R7
SYMATTR Value 100
SYMBOL voltage -336 -304 R0
WINDOW 123 0 0 Left 2
WINDOW 39 0 0 Left 2
SYMATTR InstName V3
SYMATTR Value 14
SYMBOL voltage -224 -304 R0
WINDOW 123 0 0 Left 2
WINDOW 39 0 0 Left 2
SYMATTR InstName V5
SYMATTR Value -14
SYMBOL OpAmps\\LT1169 2720 608 R0
SYMATTR InstName U3
SYMBOL res 3056 768 R0
SYMATTR InstName R5
SYMATTR Value 1000
TEXT -112 504 Left 2 !.tran 100
